# DIS package for  SEAWAT, generated by Flopy.
        20        27       345        81         4         2
  0  0  0  0  0  0  0  0  0  0  0  0  0  0  0  0  0  0  0  0
         0     60.96                           -1 #delr
         0     60.96                           -1 #delc
        11         1         (345E15.6)        -1 #model_top
   0.000000E+00   0.000000E+00   0.000000E+00   0.000000E+00   0.000000E+00   0.000000E+00   0.000000E+00   0.000000E+00   0.000000E+00   0.000000E+00   0.000000E+00   0.000000E+00   0.000000E+00   0.000000E+00   0.000000E+00   0.000000E+00   0.000000E+00   0.000000E+00   0.000000E+00   0.000000E+00   0.000000E+00   0.000000E+00   0.000000E+00   0.000000E+00   0.000000E+00   0.000000E+00   0.000000E+00   0.000000E+00   0.000000E+00   0.000000E+00   0.000000E+00   0.000000E+00   0.000000E+00   0.000000E+00   0.000000E+00   0.000000E+00   0.000000E+00   0.000000E+00   0.000000E+00   0.000000E+00   0.000000E+00   0.000000E+00   0.000000E+00   0.000000E+00   0.000000E+00   0.000000E+00   0.000000E+00   0.000000E+00   0.000000E+00   0.000000E+00   0.000000E+00   0.000000E+00   0.000000E+00   0.000000E+00   0.000000E+00   0.000000E+00   0.000000E+00   0.000000E+00   0.000000E+00   0.000000E+00   0.000000E+00   0.000000E+00   0.000000E+00   0.000000E+00   0.000000E+00   0.000000E+00   0.000000E+00   0.000000E+00  -1.484070E-02  -1.923073E-02   0.000000E+00   0.000000E+00   0.000000E+00   0.000000E+00   0.000000E+00   0.000000E+00   0.000000E+00   0.000000E+00   0.000000E+00   0.000000E+00   0.000000E+00   0.000000E+00   0.000000E+00   0.000000E+00   0.000000E+00   0.000000E+00   0.000000E+00   0.000000E+00   0.000000E+00   0.000000E+00   0.000000E+00   0.000000E+00   0.000000E+00   0.000000E+00   0.000000E+00   0.000000E+00   0.000000E+00   0.000000E+00   0.000000E+00   0.000000E+00   0.000000E+00   0.000000E+00   0.000000E+00   0.000000E+00   0.000000E+00   0.000000E+00   0.000000E+00   0.000000E+00   0.000000E+00   0.000000E+00   0.000000E+00   0.000000E+00   0.000000E+00   0.000000E+00   0.000000E+00   0.000000E+00   0.000000E+00   0.000000E+00   0.000000E+00   0.000000E+00   0.000000E+00   0.000000E+00   0.000000E+00   0.000000E+00   0.000000E+00   0.000000E+00   0.000000E+00   0.000000E+00   0.000000E+00   0.000000E+00   0.000000E+00   0.000000E+00   0.000000E+00   0.000000E+00   0.000000E+00   0.000000E+00   0.000000E+00   0.000000E+00   0.000000E+00   0.000000E+00   0.000000E+00   8.773220E-01   1.075597E+00   1.400022E+00   1.876827E+00   2.344749E+00   3.081727E+00   2.998626E+00   2.938185E+00   2.828998E+00   2.973812E+00   2.754875E+00   2.686614E+00   2.480780E+00   2.537680E+00   2.347850E+00   2.182124E+00   2.094581E+00   1.987000E+00   1.887658E+00   1.413088E+00   1.398104E+00   1.134000E+00   1.134000E+00   1.134000E+00   1.134000E+00   1.242327E+00   1.706932E+00   1.692227E+00   1.989922E+00   2.219564E+00   2.628081E+00   2.574985E+00   2.794709E+00   3.094412E+00   3.163570E+00   3.395165E+00   3.884736E+00   3.884000E+00   3.884000E+00   3.858367E+00   3.662520E+00   3.643321E+00   3.876171E+00   3.884000E+00   3.884000E+00   3.884000E+00   3.884000E+00   3.884000E+00   3.884000E+00   3.884000E+00   3.884000E+00   3.884000E+00   3.884000E+00   3.884000E+00   3.884000E+00   3.884000E+00   3.884000E+00   3.884000E+00   3.889795E+00   3.900385E+00   3.884000E+00   3.884000E+00   3.884000E+00   3.992876E+00   4.091941E+00   4.256105E+00   4.380379E+00   4.449082E+00   4.574378E+00   4.693091E+00   4.857822E+00   4.968974E+00   5.056412E+00   5.085051E+00   5.043437E+00   4.958024E+00   4.848416E+00   4.550063E+00   4.501897E+00   4.372270E+00   4.193488E+00   4.066475E+00   3.954337E+00   4.106801E+00   4.569734E+00   4.723415E+00   4.808048E+00   4.810841E+00   4.694669E+00   4.549123E+00   3.967776E+00   3.947405E+00   4.014260E+00   4.577365E+00   5.229576E+00   6.039550E+00   6.103469E+00   7.921613E+00   8.982820E+00   9.838414E+00   9.886391E+00   9.567924E+00   9.061942E+00   8.989719E+00   7.307827E+00   6.639145E+00   5.848574E+00   5.000717E+00   4.969745E+00   5.151932E+00   7.264193E+00   8.340649E+00   9.055933E+00   8.983782E+00   7.393732E+00   5.628109E+00   6.607810E+00   8.712235E+00   8.779029E+00   1.061015E+01   1.224082E+01   1.221913E+01   1.291534E+01   1.299171E+01   6.779828E+00   6.351202E+00   5.816046E+00   5.864382E+00   6.092102E+00   6.784521E+00   6.955300E+00   6.935976E+00   6.891818E+00   9.449472E+00   1.406013E+01   1.367085E+01   1.324927E+01   1.467877E+01   1.340768E+01   1.370149E+01   1.387547E+01   1.303132E+01   1.188245E+01   1.191454E+01   1.307865E+01   1.316821E+01   1.382437E+01   1.377567E+01   1.388111E+01   1.419316E+01   1.297953E+01   6.241598E+00   4.547565E+00   4.530345E+00   7.358027E+00   1.210390E+01   1.222107E+01   1.162162E+01   1.426772E+01   1.399619E+01   1.222062E+01   1.516106E+01   1.638442E+01   1.537767E+01   6.517564E+00   1.413148E+01   1.493694E+01   1.260982E+01   1.017879E+01   1.065484E+01   1.262963E+01   1.835690E+01   1.882353E+01   1.909143E+01   1.920761E+01   2.019343E+01   2.060242E+01   2.109574E+01   2.186106E+01   2.179072E+01   2.195857E+01   2.221571E+01   2.221185E+01   2.068241E+01   1.940916E+01   1.182774E+01   1.979171E+01   1.967504E+01   1.985557E+01   1.926611E+01   1.883323E+01   2.071474E+01   2.122927E+01   2.163252E+01   2.184945E+01   2.206353E+01   2.226996E+01   2.232730E+01   2.238244E+01   2.254436E+01   2.272743E+01   2.281533E+01   2.309535E+01   2.331826E+01
   0.000000E+00   0.000000E+00   0.000000E+00   0.000000E+00   0.000000E+00   0.000000E+00   0.000000E+00   0.000000E+00   0.000000E+00   0.000000E+00   0.000000E+00   0.000000E+00   0.000000E+00   0.000000E+00   0.000000E+00   0.000000E+00   0.000000E+00   0.000000E+00   0.000000E+00   0.000000E+00   0.000000E+00   0.000000E+00   0.000000E+00   0.000000E+00   0.000000E+00   0.000000E+00   0.000000E+00   0.000000E+00   0.000000E+00   0.000000E+00   0.000000E+00   0.000000E+00   0.000000E+00   0.000000E+00   0.000000E+00   0.000000E+00   0.000000E+00   0.000000E+00   0.000000E+00   0.000000E+00   0.000000E+00   0.000000E+00   0.000000E+00   0.000000E+00   0.000000E+00   0.000000E+00   0.000000E+00   0.000000E+00   0.000000E+00   0.000000E+00   0.000000E+00   0.000000E+00   0.000000E+00   0.000000E+00   0.000000E+00   0.000000E+00   0.000000E+00   0.000000E+00   0.000000E+00   0.000000E+00   0.000000E+00   0.000000E+00   0.000000E+00   0.000000E+00   0.000000E+00   0.000000E+00   0.000000E+00   0.000000E+00   0.000000E+00  -2.215688E-02   0.000000E+00   0.000000E+00   0.000000E+00   0.000000E+00   0.000000E+00   0.000000E+00   0.000000E+00   0.000000E+00   0.000000E+00   0.000000E+00   0.000000E+00   0.000000E+00   0.000000E+00   0.000000E+00   0.000000E+00   0.000000E+00   0.000000E+00   0.000000E+00   0.000000E+00   0.000000E+00   0.000000E+00   0.000000E+00   0.000000E+00   0.000000E+00   0.000000E+00   0.000000E+00   0.000000E+00   0.000000E+00   0.000000E+00   0.000000E+00   0.000000E+00   0.000000E+00   0.000000E+00   0.000000E+00   0.000000E+00   0.000000E+00   0.000000E+00   0.000000E+00   0.000000E+00   0.000000E+00   0.000000E+00   0.000000E+00   0.000000E+00   0.000000E+00   0.000000E+00   0.000000E+00   0.000000E+00   0.000000E+00   0.000000E+00   0.000000E+00   0.000000E+00   0.000000E+00   0.000000E+00   0.000000E+00   0.000000E+00   0.000000E+00   0.000000E+00   0.000000E+00   0.000000E+00   0.000000E+00   0.000000E+00   0.000000E+00   0.000000E+00   0.000000E+00   0.000000E+00   0.000000E+00   0.000000E+00   0.000000E+00   0.000000E+00   0.000000E+00   0.000000E+00   8.803455E-01   1.106557E+00   1.547314E+00   2.061945E+00   2.474785E+00   3.552570E+00   3.376736E+00   3.168458E+00   3.254346E+00   3.214245E+00   3.158571E+00   2.945583E+00   3.064951E+00   2.816333E+00   2.565708E+00   2.354523E+00   2.346173E+00   2.213351E+00   1.983568E+00   1.975078E+00   1.884941E+00   1.567105E+00   1.134000E+00   1.134000E+00   1.134000E+00   1.134000E+00   1.134000E+00   1.136219E+00   1.683113E+00   1.944554E+00   1.906779E+00   2.092646E+00   2.560671E+00   2.881507E+00   2.894187E+00   3.223437E+00   3.562492E+00   3.548420E+00   3.791532E+00   3.611593E+00   3.552767E+00   3.718341E+00   3.875523E+00   3.884000E+00   3.884000E+00   3.884000E+00   3.884000E+00   3.884000E+00   3.884000E+00   3.884000E+00   3.884000E+00   3.884000E+00   3.884000E+00   3.884000E+00   3.884000E+00   3.884000E+00   3.884000E+00   3.884000E+00   3.884000E+00   3.884000E+00   3.884000E+00   3.884000E+00   3.906161E+00   3.996655E+00   4.035818E+00   4.206076E+00   4.286528E+00   4.406976E+00   4.509234E+00   4.624022E+00   4.676705E+00   4.788374E+00   5.013418E+00   5.053925E+00   5.022176E+00   4.963899E+00   4.857613E+00   4.795257E+00   4.668792E+00   4.436682E+00   4.253503E+00   4.319586E+00   4.289376E+00   4.341496E+00   4.660901E+00   4.749871E+00   4.798312E+00   4.805912E+00   4.738991E+00   4.596016E+00   4.299088E+00   4.121753E+00   3.932845E+00   4.106369E+00   4.846216E+00   4.165662E+00   4.496074E+00   6.872078E+00   8.164448E+00   9.829041E+00   9.766712E+00   9.418201E+00   9.251913E+00   9.428847E+00   8.954428E+00   7.883637E+00   5.620569E+00   4.710186E+00   4.697164E+00   4.831054E+00   7.108535E+00   8.856462E+00   9.889631E+00   5.993346E+00   6.672719E+00   8.322575E+00   8.258313E+00   7.537981E+00   6.810352E+00   1.011435E+01   1.162958E+01   1.207181E+01   1.222415E+01   1.308889E+01   7.865998E+00   7.997498E+00   5.978254E+00   5.851874E+00   5.891479E+00   6.632950E+00   6.949695E+00   6.947397E+00   6.553868E+00   7.074029E+00   1.180234E+01   1.197379E+01   1.388741E+01   1.488275E+01   1.473909E+01   1.114268E+01   9.573937E+00   7.851684E+00   1.196931E+01   1.308607E+01   1.305261E+01   1.304196E+01   1.303612E+01   1.314031E+01   1.303022E+01   1.379811E+01   1.530811E+01   1.526555E+01   1.276792E+01   5.330101E+00   5.531780E+00   6.761832E+00   8.789268E+00   1.327083E+01   9.586705E+00   7.302428E+00   1.122637E+01   1.234830E+01   1.157131E+01   8.139673E+00   8.687436E+00   8.689100E+00   7.174482E+00   1.171751E+01   1.350577E+01   1.341278E+01   1.427666E+01   1.634931E+01   1.721270E+01   1.881841E+01   1.950540E+01   1.998247E+01   2.056824E+01   2.101065E+01   2.133389E+01   2.145281E+01   2.173777E+01   2.173793E+01   2.115127E+01   2.077088E+01   2.051025E+01   1.980258E+01   1.298881E+01   1.359859E+01   1.304876E+01   1.982731E+01   1.982821E+01   2.037457E+01   2.116915E+01   2.217599E+01   2.204650E+01   2.193484E+01   2.223731E+01   2.216438E+01   2.202572E+01   2.228061E+01   2.235598E+01   2.272634E+01   2.297694E+01   2.323659E+01
   0.000000E+00   0.000000E+00   0.000000E+00   0.000000E+00   0.000000E+00   0.000000E+00   0.000000E+00   0.000000E+00   0.000000E+00   0.000000E+00   0.000000E+00   0.000000E+00   0.000000E+00   0.000000E+00   0.000000E+00   0.000000E+00   0.000000E+00   0.000000E+00   0.000000E+00   0.000000E+00   0.000000E+00   0.000000E+00   0.000000E+00   0.000000E+00   0.000000E+00   0.000000E+00   0.000000E+00   0.000000E+00   0.000000E+00   0.000000E+00   0.000000E+00   0.000000E+00   0.000000E+00   0.000000E+00   0.000000E+00   0.000000E+00   0.000000E+00   0.000000E+00   0.000000E+00   0.000000E+00   0.000000E+00   0.000000E+00   0.000000E+00   0.000000E+00   0.000000E+00   0.000000E+00   0.000000E+00   0.000000E+00   0.000000E+00   0.000000E+00   0.000000E+00   0.000000E+00   0.000000E+00   0.000000E+00   0.000000E+00   0.000000E+00   0.000000E+00   0.000000E+00   0.000000E+00   0.000000E+00   0.000000E+00   0.000000E+00   0.000000E+00   0.000000E+00   0.000000E+00   0.000000E+00   0.000000E+00   5.099519E-01   5.607562E-01   7.554326E-02   0.000000E+00   0.000000E+00   0.000000E+00   0.000000E+00   0.000000E+00   0.000000E+00   0.000000E+00   0.000000E+00   0.000000E+00   0.000000E+00   0.000000E+00   0.000000E+00   0.000000E+00   0.000000E+00   0.000000E+00   0.000000E+00   0.000000E+00   0.000000E+00   0.000000E+00   0.000000E+00   0.000000E+00   0.000000E+00   0.000000E+00   0.000000E+00   0.000000E+00   0.000000E+00   0.000000E+00   0.000000E+00   0.000000E+00   0.000000E+00   0.000000E+00   0.000000E+00   0.000000E+00   0.000000E+00   0.000000E+00   0.000000E+00   0.000000E+00   0.000000E+00   0.000000E+00   0.000000E+00   0.000000E+00   0.000000E+00   0.000000E+00   0.000000E+00   0.000000E+00   0.000000E+00   0.000000E+00   0.000000E+00   0.000000E+00   0.000000E+00   0.000000E+00   0.000000E+00   0.000000E+00   0.000000E+00   0.000000E+00   0.000000E+00   0.000000E+00   0.000000E+00   0.000000E+00   0.000000E+00   0.000000E+00   0.000000E+00   0.000000E+00   0.000000E+00   0.000000E+00   0.000000E+00   0.000000E+00   0.000000E+00   0.000000E+00   0.000000E+00   0.000000E+00   8.845297E-01   1.108789E+00   1.908492E+00   2.942191E+00   3.574000E+00   3.833564E+00   3.632823E+00   3.342338E+00   3.405119E+00   3.413520E+00   3.450918E+00   3.791967E+00   3.703051E+00   3.038414E+00   2.765439E+00   2.617022E+00   2.443273E+00   2.304187E+00   2.165625E+00   2.140289E+00   1.958591E+00   1.885908E+00   1.858962E+00   1.680539E+00   1.134000E+00   1.134000E+00   1.134000E+00   1.134000E+00   1.128426E+00   1.675838E+00   1.686639E+00   1.881194E+00   2.042219E+00   2.291548E+00   2.591288E+00   2.951410E+00   3.330603E+00   3.292786E+00   3.520562E+00   3.618084E+00   3.870938E+00   3.857603E+00   3.884000E+00   3.884000E+00   3.884000E+00   3.884000E+00   3.884000E+00   3.884000E+00   3.884000E+00   3.884000E+00   3.880822E+00   1.966177E+00   2.185714E+00   2.258749E+00   2.916717E+00   1.700438E+00   3.543894E+00   3.884000E+00   3.884000E+00   3.884000E+00   3.884000E+00   3.889843E+00   3.999300E+00   4.048322E+00   4.079062E+00   4.153968E+00   4.261511E+00   4.395037E+00   4.473789E+00   4.556353E+00   4.658395E+00   4.753375E+00   4.849580E+00   4.947264E+00   5.011262E+00   4.972586E+00   4.893190E+00   4.854758E+00   4.749053E+00   4.648732E+00   4.667904E+00   4.590672E+00   4.597131E+00   4.620555E+00   4.888493E+00   4.847541E+00   4.844258E+00   4.842988E+00   4.852289E+00   4.729481E+00   4.573389E+00   5.161710E+00   5.923795E+00   6.950383E+00   3.954580E+00   6.484607E+00   5.158072E+00   2.916411E+00   7.195406E+00   4.706255E+00   3.402273E+00   7.112383E+00   4.736221E+00   3.099071E+00   6.255350E+00   7.702355E+00   4.729113E+00   4.534754E+00   4.710534E+00   7.685771E+00   8.366539E+00   7.885275E+00   5.780700E+00   7.690303E+00   8.685037E+00   8.541341E+00   7.037976E+00   6.006986E+00   7.413176E+00   8.701923E+00   1.040308E+01   1.166512E+01   1.106826E+01   7.106236E+00   6.793272E+00   6.632821E+00   6.423202E+00   6.371084E+00   6.024517E+00   5.937066E+00   6.590640E+00   6.412228E+00   6.510351E+00   6.707522E+00   1.023561E+01   1.328042E+01   1.483097E+01   1.526276E+01   1.550548E+01   1.318918E+01   1.037492E+01   7.664257E+00   1.156954E+01   1.305458E+01   1.311695E+01   1.218290E+01   1.252973E+01   1.280902E+01   1.302936E+01   1.481032E+01   1.509089E+01   1.529492E+01   1.482390E+01   7.657210E+00   5.027153E+00   5.194657E+00   4.582662E+00   5.839603E+00   6.591262E+00   6.101066E+00   6.213694E+00   6.590283E+00   6.159895E+00   5.293264E+00   1.337471E+01   1.405532E+01   1.200843E+01   1.421514E+01   1.466974E+01   1.478706E+01   1.548125E+01   1.682975E+01   1.746317E+01   1.807455E+01   1.890641E+01   2.003413E+01   2.053632E+01   2.091833E+01   2.123112E+01   2.127987E+01   2.134644E+01   2.125101E+01   2.137053E+01   2.143942E+01   2.115045E+01   2.026536E+01   1.769412E+01   1.522965E+01   1.942502E+01   1.949846E+01   1.933855E+01   2.142518E+01   2.213688E+01   2.257566E+01   2.229247E+01   2.196551E+01   2.152671E+01   2.150317E+01   2.171366E+01   2.199300E+01   2.211021E+01   2.239881E+01   2.288665E+01   2.294561E+01
   0.000000E+00   0.000000E+00   0.000000E+00   0.000000E+00   0.000000E+00   0.000000E+00   0.000000E+00   0.000000E+00   0.000000E+00   0.000000E+00   0.000000E+00   0.000000E+00   0.000000E+00   0.000000E+00   0.000000E+00   0.000000E+00   0.000000E+00   0.000000E+00   0.000000E+00   0.000000E+00   0.000000E+00   0.000000E+00   0.000000E+00   0.000000E+00   0.000000E+00   0.000000E+00   0.000000E+00   0.000000E+00   0.000000E+00   0.000000E+00   0.000000E+00   0.000000E+00   0.000000E+00   0.000000E+00   0.000000E+00   0.000000E+00   0.000000E+00   0.000000E+00   0.000000E+00   0.000000E+00   0.000000E+00   0.000000E+00   0.000000E+00   0.000000E+00   0.000000E+00   0.000000E+00   0.000000E+00   0.000000E+00   0.000000E+00   0.000000E+00   0.000000E+00   0.000000E+00   0.000000E+00   0.000000E+00   0.000000E+00   0.000000E+00   0.000000E+00   0.000000E+00   0.000000E+00   0.000000E+00   0.000000E+00   0.000000E+00   0.000000E+00   0.000000E+00   0.000000E+00   0.000000E+00   0.000000E+00   0.000000E+00   0.000000E+00   2.284647E-02   1.837998E-02   0.000000E+00   0.000000E+00   0.000000E+00   0.000000E+00   0.000000E+00   0.000000E+00   0.000000E+00   0.000000E+00   0.000000E+00   0.000000E+00   0.000000E+00   0.000000E+00   0.000000E+00   0.000000E+00   0.000000E+00   0.000000E+00   0.000000E+00   0.000000E+00   0.000000E+00   0.000000E+00   0.000000E+00   0.000000E+00   0.000000E+00   0.000000E+00   0.000000E+00   0.000000E+00   0.000000E+00   0.000000E+00   0.000000E+00   0.000000E+00   0.000000E+00   0.000000E+00   0.000000E+00   0.000000E+00   0.000000E+00   0.000000E+00   0.000000E+00   0.000000E+00   0.000000E+00   0.000000E+00   0.000000E+00   0.000000E+00   0.000000E+00   0.000000E+00   0.000000E+00   0.000000E+00   0.000000E+00   0.000000E+00   0.000000E+00   0.000000E+00   0.000000E+00   0.000000E+00   0.000000E+00   0.000000E+00   0.000000E+00   0.000000E+00   0.000000E+00   0.000000E+00   0.000000E+00   0.000000E+00   0.000000E+00   0.000000E+00   0.000000E+00   0.000000E+00   0.000000E+00   0.000000E+00   0.000000E+00   0.000000E+00   0.000000E+00   0.000000E+00   0.000000E+00   8.772346E-01   2.005078E+00   3.227585E+00   3.574000E+00   3.574000E+00   3.728467E+00   3.715814E+00   3.613719E+00   3.582355E+00   3.677610E+00   3.574000E+00   3.775848E+00   3.428182E+00   3.129857E+00   2.680822E+00   2.507303E+00   2.389259E+00   2.312869E+00   2.215469E+00   2.124631E+00   2.029062E+00   1.927828E+00   1.832273E+00   1.497591E+00   1.681376E+00   1.134000E+00   1.134000E+00   1.134000E+00   1.134000E+00   1.135419E+00   1.570521E+00   1.796173E+00   1.720568E+00   1.999435E+00   2.600281E+00   2.600049E+00   2.937840E+00   3.221091E+00   3.440708E+00   3.593543E+00   3.811697E+00   3.884000E+00   3.884000E+00   3.884000E+00   3.884000E+00   3.884000E+00   3.655637E+00   3.336655E+00   2.309586E+00   1.787708E+00   1.124400E+00   1.114910E+00   1.842022E+00   1.134000E+00   1.134000E+00   1.546917E+00   3.884000E+00   3.898952E+00   3.884000E+00   3.884000E+00   3.884000E+00   4.070534E+00   4.112266E+00   4.161552E+00   4.270639E+00   4.319521E+00   4.378767E+00   4.431824E+00   4.585224E+00   4.668254E+00   4.757547E+00   4.880517E+00   4.972509E+00   5.029713E+00   5.029513E+00   4.961956E+00   4.895813E+00   4.820577E+00   4.739290E+00   4.780303E+00   4.777285E+00   4.872783E+00   5.083284E+00   5.074339E+00   5.037024E+00   5.003830E+00   5.158202E+00   5.077309E+00   4.902786E+00   4.961625E+00   5.466327E+00   6.058275E+00   6.818094E+00   6.779303E+00   6.921865E+00   7.116776E+00   7.118019E+00   7.167985E+00   7.164835E+00   7.180312E+00   7.208968E+00   7.178993E+00   7.030796E+00   6.653542E+00   7.113901E+00   7.305492E+00   7.678686E+00   7.741336E+00   8.410188E+00   8.380681E+00   8.249298E+00   7.994759E+00   7.893024E+00   8.079525E+00   8.350084E+00   6.776073E+00   7.280278E+00   8.417165E+00   9.474736E+00   1.049498E+01   1.066184E+01   1.012966E+01   6.967200E+00   6.946499E+00   6.788708E+00   6.501077E+00   6.656755E+00   6.515917E+00   6.097030E+00   6.176086E+00   6.063262E+00   6.573467E+00   7.955031E+00   1.187436E+01   1.371793E+01   1.573330E+01   1.587935E+01   1.416751E+01   1.021147E+01   7.341772E+00   6.868773E+00   1.341567E+01   1.307054E+01   1.243378E+01   1.208562E+01   1.306344E+01   1.305634E+01   1.309773E+01   1.424437E+01   1.420135E+01   1.383020E+01   8.946177E+00   6.882143E+00   7.673010E+00   6.430069E+00   5.954434E+00   4.318080E+00   5.674305E+00   7.922105E+00   6.737170E+00   4.282062E+00   5.508779E+00   1.389700E+01   1.422387E+01   1.452339E+01   1.416839E+01   1.470612E+01   1.502572E+01   1.525075E+01   1.690629E+01   1.746619E+01   1.802828E+01   1.853372E+01   1.993983E+01   2.022223E+01   2.050130E+01   2.105272E+01   2.134285E+01   2.129391E+01   2.115870E+01   2.084113E+01   2.171777E+01   2.200678E+01   2.145626E+01   2.138735E+01   2.060856E+01   1.934363E+01   1.845710E+01   1.836175E+01   1.906306E+01   2.217795E+01   2.310036E+01   2.297842E+01   2.263518E+01   2.221334E+01   2.093175E+01   2.098867E+01   2.138787E+01   2.190630E+01   2.225384E+01   2.251571E+01   2.271982E+01   2.277365E+01
   0.000000E+00   0.000000E+00   0.000000E+00   0.000000E+00   0.000000E+00   0.000000E+00   0.000000E+00   0.000000E+00   0.000000E+00   0.000000E+00   0.000000E+00   0.000000E+00   0.000000E+00   0.000000E+00   0.000000E+00   0.000000E+00   0.000000E+00   0.000000E+00   0.000000E+00   0.000000E+00   0.000000E+00   0.000000E+00   0.000000E+00   0.000000E+00   0.000000E+00   0.000000E+00   0.000000E+00   0.000000E+00   0.000000E+00   0.000000E+00   0.000000E+00   0.000000E+00   0.000000E+00   0.000000E+00   0.000000E+00   0.000000E+00   0.000000E+00   0.000000E+00   0.000000E+00   0.000000E+00   0.000000E+00   0.000000E+00   0.000000E+00   0.000000E+00   0.000000E+00   0.000000E+00   0.000000E+00   0.000000E+00   0.000000E+00   0.000000E+00   0.000000E+00   0.000000E+00   0.000000E+00   0.000000E+00   0.000000E+00   0.000000E+00   0.000000E+00   0.000000E+00   0.000000E+00   0.000000E+00   0.000000E+00   0.000000E+00   0.000000E+00   0.000000E+00   0.000000E+00   0.000000E+00   0.000000E+00   0.000000E+00   3.879126E-03   5.004825E-03   6.671464E-03   5.653262E-03   7.276014E-04   0.000000E+00   0.000000E+00   0.000000E+00   0.000000E+00   0.000000E+00   0.000000E+00   0.000000E+00   0.000000E+00   0.000000E+00   0.000000E+00   0.000000E+00   0.000000E+00   0.000000E+00   0.000000E+00   0.000000E+00   0.000000E+00   0.000000E+00   0.000000E+00   0.000000E+00   0.000000E+00   0.000000E+00   0.000000E+00   0.000000E+00   0.000000E+00   0.000000E+00   0.000000E+00   0.000000E+00   0.000000E+00   0.000000E+00   0.000000E+00   0.000000E+00   0.000000E+00   0.000000E+00   0.000000E+00   0.000000E+00   0.000000E+00   0.000000E+00   0.000000E+00   0.000000E+00   0.000000E+00   0.000000E+00   0.000000E+00   0.000000E+00   0.000000E+00   0.000000E+00   0.000000E+00   0.000000E+00   0.000000E+00   0.000000E+00   0.000000E+00   0.000000E+00   0.000000E+00   0.000000E+00   0.000000E+00   0.000000E+00   0.000000E+00   0.000000E+00   0.000000E+00   0.000000E+00   0.000000E+00   0.000000E+00   0.000000E+00   0.000000E+00   0.000000E+00   0.000000E+00   0.000000E+00   0.000000E+00   0.000000E+00   0.000000E+00   8.895110E-01   1.147456E+00   2.263906E+00   3.574000E+00   3.574000E+00   3.794412E+00   3.576569E+00   3.697261E+00   3.800260E+00   3.574000E+00   3.818547E+00   3.630811E+00   3.393766E+00   3.106569E+00   2.924981E+00   2.712181E+00   2.448006E+00   2.367820E+00   2.274580E+00   2.194250E+00   2.150064E+00   2.069077E+00   1.992805E+00   1.830191E+00   1.860193E+00   1.568965E+00   1.134000E+00   1.134000E+00   1.134000E+00   1.134000E+00   1.134000E+00   1.134000E+00   1.194883E+00   1.671592E+00   1.898148E+00   1.794314E+00   2.662544E+00   3.047377E+00   3.463739E+00   3.680333E+00   3.884000E+00   3.884000E+00   3.884000E+00   3.884000E+00   3.884000E+00   3.869475E+00   1.853290E+00   1.740926E+00   1.272274E+00   3.632678E+00   3.392121E+00   2.032017E+00   1.170323E+00   1.346667E+00   1.134000E+00   1.134000E+00   1.134000E+00   1.576764E+00   3.333249E+00   3.884000E+00   3.938859E+00   4.025835E+00   4.095390E+00   4.195616E+00   4.303856E+00   4.371914E+00   4.420222E+00   4.539820E+00   4.588598E+00   4.627229E+00   4.772029E+00   4.913741E+00   5.011460E+00   5.053425E+00   5.057496E+00   5.072151E+00   5.012082E+00   4.871846E+00   4.950459E+00   4.939672E+00   4.982660E+00   5.028709E+00   5.302074E+00   5.317752E+00   5.248071E+00   5.342424E+00   5.305152E+00   5.239254E+00   5.175077E+00   5.411582E+00   5.724071E+00   6.174169E+00   6.581606E+00   6.715743E+00   6.908956E+00   7.005355E+00   6.995533E+00   7.116432E+00   7.157227E+00   7.196742E+00   7.181277E+00   7.190701E+00   7.198513E+00   7.141193E+00   7.279373E+00   7.435479E+00   7.691540E+00   7.974236E+00   8.196001E+00   8.311226E+00   8.205982E+00   7.905315E+00   7.562234E+00   6.927068E+00   6.420694E+00   7.038490E+00   7.652802E+00   9.264096E+00   1.000252E+01   1.016758E+01   9.932332E+00   8.814141E+00   6.937000E+00   6.937000E+00   6.942768E+00   6.954449E+00   6.963782E+00   6.926983E+00   6.585677E+00   6.542229E+00   6.198486E+00   6.111746E+00   7.132613E+00   8.320352E+00   1.056164E+01   1.307754E+01   1.026712E+01   6.388723E+00   5.783257E+00   6.382668E+00   6.671522E+00   7.309618E+00   6.932255E+00   8.671437E+00   1.213356E+01   1.299430E+01   1.333907E+01   1.408931E+01   1.415080E+01   1.388542E+01   1.286997E+01   1.513408E+01   1.239095E+01   1.039510E+01   1.301805E+01   1.335920E+01   9.565538E+00   1.203009E+01   1.226478E+01   1.387555E+01   8.510613E+00   6.158721E+00   1.356175E+01   1.433791E+01   1.456021E+01   1.420436E+01   1.439483E+01   1.490714E+01   1.534453E+01   1.594282E+01   1.716337E+01   1.868704E+01   2.000030E+01   2.072812E+01   2.120696E+01   2.131380E+01   2.189629E+01   2.158299E+01   2.144344E+01   2.114490E+01   1.928516E+01   2.113814E+01   2.259248E+01   2.299821E+01   2.207763E+01   2.088531E+01   1.957113E+01   1.879505E+01   1.969563E+01   2.105735E+01   2.371182E+01   2.355822E+01   2.328888E+01   2.280143E+01   2.072627E+01   1.959455E+01   1.993386E+01   2.077984E+01   2.221465E+01   2.239112E+01   2.259328E+01   2.254844E+01   2.241516E+01