# LPF package for  SEAWAT, generated by Flopy.
        53    -1E+30         0  
         0         0         0         0         0         0         0         0         0         0         0         0         0         0         0         0         0         0         0         0
         0         0         0         0         0         0         0         0         0         0         0         0         0         0         0         0         0         0         0         0
   1.000000E+00   1.000000E+00   1.000000E+00   1.000000E+00   1.000000E+00   1.000000E+00   1.000000E+00   1.000000E+00   1.000000E+00   1.000000E+00   1.000000E+00   1.000000E+00   1.000000E+00   1.000000E+00   1.000000E+00   1.000000E+00   1.000000E+00   1.000000E+00   1.000000E+00   1.000000E+00
         0         0         0         0         0         0         0         0         0         0         0         0         0         0         0         0         0         0         0         0
         0         0         0         0         0         0         0         0         0         0         0         0         0         0         0         0         0         0         0         0
        15         1         (345E15.6)        -1 #hk layer 1
   1.000000E+04   1.000000E+04   1.000000E+04   1.000000E+04   1.000000E+04   1.000000E+04   1.000000E+04   1.000000E+04   1.000000E+04   1.000000E+04   1.000000E+04   1.000000E+04   1.000000E+04   1.000000E+04   1.000000E+04   1.000000E+04   1.000000E+04   1.000000E+04   1.000000E+04   1.000000E+04   1.000000E+04   1.000000E+04   1.000000E+04   1.000000E+04   1.000000E+04   1.000000E+04   1.000000E+04   1.000000E+04   1.000000E+04   1.000000E+04   1.000000E+04   1.000000E+04   1.000000E+04   1.000000E+04   1.000000E+04   1.000000E+04   1.000000E+04   1.000000E+04   1.000000E+04   1.000000E+04   1.000000E+04   1.000000E+04   1.000000E+04   1.000000E+04   1.000000E+04   1.000000E+04   1.000000E+04   1.000000E+04   1.000000E+04   1.000000E+04   1.000000E+04   1.000000E+04   1.000000E+04   1.000000E+04   1.000000E+04   1.000000E+04   1.000000E+04   1.000000E+04   1.000000E+04   1.000000E+04   1.000000E+04   1.000000E+04   1.000000E+04   1.000000E+04   1.000000E+04   1.000000E+04   1.000000E+04   1.000000E+04   1.000000E+04   1.000000E+04   1.000000E+04   1.000000E+04   1.000000E+04   1.000000E+04   1.000000E+04   1.000000E+04   1.000000E+04   1.000000E+04   1.000000E+04   1.000000E+04   1.000000E+04   1.000000E+04   1.000000E+04   1.000000E+04   1.000000E+04   1.000000E+04   1.000000E+04   1.000000E+04   1.000000E+04   1.000000E+04   1.000000E+04   1.000000E+04   1.000000E+04   1.000000E+04   1.000000E+04   1.000000E+04   1.000000E+04   1.000000E+04   1.000000E+04   1.000000E+04   1.000000E+04   1.000000E+04   1.000000E+04   1.000000E+04   1.000000E+04   1.000000E+04   1.000000E+04   1.000000E+04   1.000000E+04   1.000000E+04   1.000000E+04   1.000000E+04   1.000000E+04   1.000000E+04   1.000000E+04   1.000000E+04   1.000000E+04   1.000000E+04   1.000000E+04   1.000000E+04   1.000000E+04   1.000000E+04   1.000000E+04   1.000000E+04   1.000000E+04   1.000000E+04   1.000000E+04   1.000000E+04   1.000000E+04   1.000000E+04   1.000000E+04   1.000000E+04   1.000000E+04   1.000000E+04   1.000000E+04   1.000000E+04   1.000000E+04   1.000000E+04   1.000000E+02   1.000000E+02   1.000000E+02   1.000000E+02   1.000000E+02   1.000000E+02   1.000000E+02   1.000000E+02   1.000000E+02   1.000000E+02   1.000000E+02   1.000000E+02   1.000000E+02   1.000000E+02   1.000000E+02   1.000000E+02   1.000000E+02   1.000000E+02   1.000000E+02   1.000000E+02   1.000000E+02   1.000000E+02   1.000000E+02   1.000000E+02   1.000000E+02   1.000000E+02   1.000000E+02   1.000000E+02   1.000000E+02   1.000000E+02   1.000000E+02   1.000000E+02   1.000000E+02   1.000000E+02   1.000000E+02   1.000000E+02   1.000000E+02   1.000000E+02   1.000000E+02   1.000000E+02   1.000000E+02   1.000000E+02   1.000000E+02   1.000000E+02   1.000000E+02   1.000000E+02   1.000000E+02   1.000000E+02   1.000000E+02   1.000000E+02   1.000000E+02   1.000000E+02   1.000000E+02   1.000000E+02   1.000000E+02   1.000000E+02   1.000000E+02   1.000000E+02   1.000000E+02   1.000000E+02   1.000000E+02   1.000000E+02   1.000000E+02   1.000000E+02   1.000000E+02   1.000000E+02   1.000000E+02   1.000000E+02   1.000000E+02   1.000000E+02   1.000000E+02   1.000000E+02   1.000000E+02   1.000000E+02   1.000000E+02   1.000000E+02   1.000000E+02   1.000000E-03   1.000000E-03   1.000000E-03   1.000000E-03   1.000000E-03   1.000000E-03   1.000000E-03   1.000000E-03   1.000000E-03   1.000000E-03   1.000000E-03   1.000000E-03   1.000000E-03   1.000000E-03   1.000000E-03   1.000000E-03   1.000000E-03   1.000000E-03   1.000000E-03   1.000000E-03   1.000000E-03   1.000000E-03   1.000000E-03   1.000000E-03   1.000000E-03   1.000000E-03   1.000000E-03   1.000000E-03   1.000000E-03   1.000000E-03   1.000000E-03   1.000000E-03   1.000000E-03   1.000000E-03   1.000000E-03   1.000000E-03   1.000000E-03   1.000000E-03   1.000000E-03   1.000000E-03   1.000000E-03   1.000000E-03   1.000000E-03   1.000000E-03   1.000000E-03   1.000000E-03   1.000000E-03   1.000000E-03   1.000000E-03   1.000000E-03   1.000000E-03   1.000000E-03   1.000000E-03   1.000000E+02   1.000000E+02   1.000000E+02   1.000000E+02   1.000000E+02   1.000000E+02   1.000000E+02   1.000000E+02   1.000000E+02   1.000000E+02   1.000000E+02   1.000000E+02   1.000000E+02   1.000000E+02   1.000000E+02   1.000000E+02   1.000000E+02   1.000000E+02   1.000000E+02   1.000000E+02   1.000000E+02   1.000000E-03   1.000000E-01   1.000000E-01   1.000000E-01   1.000000E+02   1.000000E+02   1.000000E+02   1.000000E+02   1.000000E+02   1.000000E+02   1.000000E+02   1.000000E+02   1.000000E+02   1.000000E-01   1.000000E-01   1.000000E-01   1.000000E-01   1.000000E-01   1.000000E-01   1.000000E-01   1.000000E-01   1.000000E-01   1.000000E-01   1.000000E-01   1.000000E+02   1.000000E+02   1.000000E-01   1.000000E-01   1.000000E+02   1.000000E+02   1.000000E-01   1.000000E+02   1.000000E+02   1.000000E+02   1.000000E-01   1.000000E-01   1.000000E-01   1.000000E-01   1.000000E-01   1.000000E-01   1.000000E-01   1.000000E-01   1.000000E-01   1.000000E-01   1.000000E-01   1.000000E-01   1.000000E-01   1.000000E-01   1.000000E-01   1.000000E-01   1.000000E-01   1.000000E-01   1.000000E+02   1.000000E+02   1.000000E+02   1.000000E-01
   1.000000E+04   1.000000E+04   1.000000E+04   1.000000E+04   1.000000E+04   1.000000E+04   1.000000E+04   1.000000E+04   1.000000E+04   1.000000E+04   1.000000E+04   1.000000E+04   1.000000E+04   1.000000E+04   1.000000E+04   1.000000E+04   1.000000E+04   1.000000E+04   1.000000E+04   1.000000E+04   1.000000E+04   1.000000E+04   1.000000E+04   1.000000E+04   1.000000E+04   1.000000E+04   1.000000E+04   1.000000E+04   1.000000E+04   1.000000E+04   1.000000E+04   1.000000E+04   1.000000E+04   1.000000E+04   1.000000E+04   1.000000E+04   1.000000E+04   1.000000E+04   1.000000E+04   1.000000E+04   1.000000E+04   1.000000E+04   1.000000E+04   1.000000E+04   1.000000E+04   1.000000E+04   1.000000E+04   1.000000E+04   1.000000E+04   1.000000E+04   1.000000E+04   1.000000E+04   1.000000E+04   1.000000E+04   1.000000E+04   1.000000E+04   1.000000E+04   1.000000E+04   1.000000E+04   1.000000E+04   1.000000E+04   1.000000E+04   1.000000E+04   1.000000E+04   1.000000E+04   1.000000E+04   1.000000E+04   1.000000E+04   1.000000E+04   1.000000E+04   1.000000E+04   1.000000E+04   1.000000E+04   1.000000E+04   1.000000E+04   1.000000E+04   1.000000E+04   1.000000E+04   1.000000E+04   1.000000E+04   1.000000E+04   1.000000E+04   1.000000E+04   1.000000E+04   1.000000E+04   1.000000E+04   1.000000E+04   1.000000E+04   1.000000E+04   1.000000E+04   1.000000E+04   1.000000E+04   1.000000E+04   1.000000E+04   1.000000E+04   1.000000E+04   1.000000E+04   1.000000E+04   1.000000E+04   1.000000E+04   1.000000E+04   1.000000E+04   1.000000E+04   1.000000E+04   1.000000E+04   1.000000E+04   1.000000E+04   1.000000E+04   1.000000E+04   1.000000E+04   1.000000E+04   1.000000E+04   1.000000E+04   1.000000E+04   1.000000E+04   1.000000E+04   1.000000E+04   1.000000E+04   1.000000E+04   1.000000E+04   1.000000E+04   1.000000E+04   1.000000E+04   1.000000E+04   1.000000E+04   1.000000E+04   1.000000E+04   1.000000E+04   1.000000E+04   1.000000E+04   1.000000E+04   1.000000E+04   1.000000E+04   1.000000E+04   1.000000E+04   1.000000E+04   1.000000E+04   1.000000E+02   1.000000E+02   1.000000E+02   1.000000E+02   1.000000E+02   1.000000E+02   1.000000E+02   1.000000E+02   1.000000E+02   1.000000E+02   1.000000E+02   1.000000E+02   1.000000E+02   1.000000E+02   1.000000E+02   1.000000E+02   1.000000E+02   1.000000E+02   1.000000E+02   1.000000E+02   1.000000E+02   1.000000E+02   1.000000E+02   1.000000E+02   1.000000E+02   1.000000E+02   1.000000E+02   1.000000E+02   1.000000E+02   1.000000E+02   1.000000E+02   1.000000E+02   1.000000E+02   1.000000E+02   1.000000E+02   1.000000E+02   1.000000E+02   1.000000E+02   1.000000E+02   1.000000E+02   1.000000E+02   1.000000E+02   1.000000E+02   1.000000E+02   1.000000E+02   1.000000E+02   1.000000E+02   1.000000E+02   1.000000E+02   1.000000E+02   1.000000E+02   1.000000E+02   1.000000E+02   1.000000E+02   1.000000E+02   1.000000E+02   1.000000E+02   1.000000E+02   1.000000E+02   1.000000E+02   1.000000E+02   1.000000E+02   1.000000E+02   1.000000E+02   1.000000E+02   1.000000E+02   1.000000E+02   1.000000E+02   1.000000E+02   1.000000E+02   1.000000E+02   1.000000E+02   1.000000E+02   1.000000E+02   1.000000E+02   1.000000E-03   1.000000E-03   1.000000E-03   1.000000E-03   1.000000E-03   1.000000E-03   1.000000E-03   1.000000E-03   1.000000E-03   1.000000E-03   1.000000E-03   1.000000E-03   1.000000E-03   1.000000E-03   1.000000E-03   1.000000E-03   1.000000E-03   1.000000E-03   1.000000E-03   1.000000E-03   1.000000E-03   1.000000E-03   1.000000E-03   1.000000E-03   1.000000E-03   1.000000E-03   1.000000E-03   1.000000E-03   1.000000E-03   1.000000E-03   1.000000E-03   1.000000E-03   1.000000E-03   1.000000E-03   1.000000E-03   1.000000E-03   1.000000E-03   1.000000E-03   1.000000E-03   1.000000E-03   1.000000E-03   1.000000E-03   1.000000E-03   1.000000E-03   1.000000E-03   1.000000E-03   1.000000E-03   1.000000E-03   1.000000E-03   1.000000E-03   1.000000E-03   1.000000E-03   1.000000E-03   1.000000E-03   1.000000E-03   1.000000E-03   1.000000E+02   1.000000E+02   1.000000E+02   1.000000E+02   1.000000E+02   1.000000E+02   1.000000E+02   1.000000E+02   1.000000E+02   1.000000E+02   1.000000E+02   1.000000E+02   1.000000E+02   1.000000E+02   1.000000E+02   1.000000E+02   1.000000E+02   1.000000E+02   1.000000E+02   1.000000E+02   1.000000E+02   1.000000E-03   1.000000E-01   1.000000E+02   1.000000E+02   1.000000E+02   1.000000E-01   1.000000E+02   1.000000E+02   1.000000E+02   1.000000E+02   1.000000E-01   1.000000E-01   1.000000E+02   1.000000E+02   1.000000E+02   1.000000E+02   1.000000E-01   1.000000E-01   1.000000E-01   1.000000E-01   1.000000E-01   1.000000E-01   1.000000E-01   1.000000E+02   1.000000E+02   1.000000E-01   1.000000E-01   1.000000E-01   1.000000E-01   1.000000E-01   1.000000E+02   1.000000E+02   1.000000E-01   1.000000E-01   1.000000E-01   1.000000E-01   1.000000E-01   1.000000E-01   1.000000E-01   1.000000E-01   1.000000E-01   1.000000E-01   1.000000E-01   1.000000E-01   1.000000E-01   1.000000E-01   1.000000E-01   1.000000E-01   1.000000E-01   1.000000E-01   1.000000E-01   1.000000E+02   1.000000E+02   1.000000E+02   1.000000E+02   1.000000E+02
   1.000000E+04   1.000000E+04   1.000000E+04   1.000000E+04   1.000000E+04   1.000000E+04   1.000000E+04   1.000000E+04   1.000000E+04   1.000000E+04   1.000000E+04   1.000000E+04   1.000000E+04   1.000000E+04   1.000000E+04   1.000000E+04   1.000000E+04   1.000000E+04   1.000000E+04   1.000000E+04   1.000000E+04   1.000000E+04   1.000000E+04   1.000000E+04   1.000000E+04   1.000000E+04   1.000000E+04   1.000000E+04   1.000000E+04   1.000000E+04   1.000000E+04   1.000000E+04   1.000000E+04   1.000000E+04   1.000000E+04   1.000000E+04   1.000000E+04   1.000000E+04   1.000000E+04   1.000000E+04   1.000000E+04   1.000000E+04   1.000000E+04   1.000000E+04   1.000000E+04   1.000000E+04   1.000000E+04   1.000000E+04   1.000000E+04   1.000000E+04   1.000000E+04   1.000000E+04   1.000000E+04   1.000000E+04   1.000000E+04   1.000000E+04   1.000000E+04   1.000000E+04   1.000000E+04   1.000000E+04   1.000000E+04   1.000000E+04   1.000000E+04   1.000000E+04   1.000000E+04   1.000000E+04   1.000000E+04   1.000000E+04   1.000000E+04   1.000000E+04   1.000000E+04   1.000000E+04   1.000000E+04   1.000000E+04   1.000000E+04   1.000000E+04   1.000000E+04   1.000000E+04   1.000000E+04   1.000000E+04   1.000000E+04   1.000000E+04   1.000000E+04   1.000000E+04   1.000000E+04   1.000000E+04   1.000000E+04   1.000000E+04   1.000000E+04   1.000000E+04   1.000000E+04   1.000000E+04   1.000000E+04   1.000000E+04   1.000000E+04   1.000000E+04   1.000000E+04   1.000000E+04   1.000000E+04   1.000000E+04   1.000000E+04   1.000000E+04   1.000000E+04   1.000000E+04   1.000000E+04   1.000000E+04   1.000000E+04   1.000000E+04   1.000000E+04   1.000000E+04   1.000000E+04   1.000000E+04   1.000000E+04   1.000000E+04   1.000000E+04   1.000000E+04   1.000000E+04   1.000000E+04   1.000000E+04   1.000000E+04   1.000000E+04   1.000000E+04   1.000000E+04   1.000000E+04   1.000000E+04   1.000000E+04   1.000000E+04   1.000000E+04   1.000000E+04   1.000000E+04   1.000000E+04   1.000000E+04   1.000000E+04   1.000000E+04   1.000000E+04   1.000000E+04   1.000000E+04   1.000000E+02   1.000000E+02   1.000000E+02   1.000000E+02   1.000000E+02   1.000000E+02   1.000000E+02   1.000000E+02   1.000000E+02   1.000000E+02   1.000000E+02   1.000000E+02   1.000000E+02   1.000000E+02   1.000000E+02   1.000000E+02   1.000000E+02   1.000000E+02   1.000000E+02   1.000000E+02   1.000000E+02   1.000000E+02   1.000000E+02   1.000000E+02   1.000000E+02   1.000000E+02   1.000000E+02   1.000000E+02   1.000000E+02   1.000000E+02   1.000000E+02   1.000000E+02   1.000000E+02   1.000000E+02   1.000000E+02   1.000000E+02   1.000000E+02   1.000000E+02   1.000000E+02   1.000000E+02   1.000000E+02   1.000000E+02   1.000000E+02   1.000000E+02   1.000000E+02   1.000000E+02   1.000000E+02   1.000000E+02   1.000000E+02   1.000000E+02   1.000000E+02   1.000000E+02   1.000000E+02   1.000000E+02   1.000000E+02   1.000000E+02   1.000000E+02   1.000000E+02   1.000000E+02   1.000000E+02   1.000000E+02   1.000000E+02   1.000000E+02   1.000000E+02   1.000000E+02   1.000000E+02   1.000000E+02   1.000000E+02   1.000000E+02   1.000000E+02   1.000000E+02   1.000000E+02   1.000000E-03   1.000000E-03   1.000000E-03   1.000000E-03   1.000000E-03   1.000000E-03   1.000000E-03   1.000000E-03   1.000000E-03   1.000000E-03   1.000000E-03   1.000000E-03   1.000000E-03   1.000000E-03   1.000000E-03   1.000000E-03   1.000000E-03   1.000000E-03   1.000000E-03   1.000000E-03   1.000000E-03   1.000000E-03   1.000000E-03   1.000000E-03   1.000000E-03   1.000000E-03   1.000000E-03   1.000000E-03   1.000000E-03   1.000000E-03   1.000000E-03   1.000000E-03   1.000000E-03   1.000000E-03   1.000000E-03   1.000000E-03   1.000000E-03   1.000000E-03   1.000000E-03   1.000000E-03   1.000000E-03   1.000000E-03   1.000000E-03   1.000000E-03   1.000000E-03   1.000000E-03   1.000000E-03   1.000000E-03   1.000000E-03   1.000000E-03   1.000000E-03   1.000000E-03   1.000000E-03   1.000000E-03   1.000000E-03   1.000000E-03   1.000000E-03   1.000000E-03   1.000000E-03   1.000000E+02   1.000000E+02   1.000000E+02   1.000000E+02   1.000000E+02   1.000000E+02   1.000000E+02   1.000000E+02   1.000000E+02   1.000000E+02   1.000000E+02   1.000000E+02   1.000000E+02   1.000000E+02   1.000000E+02   1.000000E+02   1.000000E+02   1.000000E+02   1.000000E+02   1.000000E+02   1.000000E+02   1.000000E-03   1.000000E+02   1.000000E+02   1.000000E+02   1.000000E+02   1.000000E+02   1.000000E+02   1.000000E-01   1.000000E-01   1.000000E-01   1.000000E-01   1.000000E+02   1.000000E+02   1.000000E+02   1.000000E+02   1.000000E+02   1.000000E+02   1.000000E+02   1.000000E+02   1.000000E+02   1.000000E-01   1.000000E-01   1.000000E+02   1.000000E+02   1.000000E+02   1.000000E+02   1.000000E-01   1.000000E-01   1.000000E-01   1.000000E+02   1.000000E+02   1.000000E-01   1.000000E-01   1.000000E-01   1.000000E-01   1.000000E-01   1.000000E-01   1.000000E-01   1.000000E-01   1.000000E-01   1.000000E-01   1.000000E-01   1.000000E-01   1.000000E-01   1.000000E-01   1.000000E-01   1.000000E-01   1.000000E-01   1.000000E-01   1.000000E-01   1.000000E-01   1.000000E+02   1.000000E+02   1.000000E+02   1.000000E+02   1.000000E+02
   1.000000E+04   1.000000E+04   1.000000E+04   1.000000E+04   1.000000E+04   1.000000E+04   1.000000E+04   1.000000E+04   1.000000E+04   1.000000E+04   1.000000E+04   1.000000E+04   1.000000E+04   1.000000E+04   1.000000E+04   1.000000E+04   1.000000E+04   1.000000E+04   1.000000E+04   1.000000E+04   1.000000E+04   1.000000E+04   1.000000E+04   1.000000E+04   1.000000E+04   1.000000E+04   1.000000E+04   1.000000E+04   1.000000E+04   1.000000E+04   1.000000E+04   1.000000E+04   1.000000E+04   1.000000E+04   1.000000E+04   1.000000E+04   1.000000E+04   1.000000E+04   1.000000E+04   1.000000E+04   1.000000E+04   1.000000E+04   1.000000E+04   1.000000E+04   1.000000E+04   1.000000E+04   1.000000E+04   1.000000E+04   1.000000E+04   1.000000E+04   1.000000E+04   1.000000E+04   1.000000E+04   1.000000E+04   1.000000E+04   1.000000E+04   1.000000E+04   1.000000E+04   1.000000E+04   1.000000E+04   1.000000E+04   1.000000E+04   1.000000E+04   1.000000E+04   1.000000E+04   1.000000E+04   1.000000E+04   1.000000E+04   1.000000E+04   1.000000E+04   1.000000E+04   1.000000E+04   1.000000E+04   1.000000E+04   1.000000E+04   1.000000E+04   1.000000E+04   1.000000E+04   1.000000E+04   1.000000E+04   1.000000E+04   1.000000E+04   1.000000E+04   1.000000E+04   1.000000E+04   1.000000E+04   1.000000E+04   1.000000E+04   1.000000E+04   1.000000E+04   1.000000E+04   1.000000E+04   1.000000E+04   1.000000E+04   1.000000E+04   1.000000E+04   1.000000E+04   1.000000E+04   1.000000E+04   1.000000E+04   1.000000E+04   1.000000E+04   1.000000E+04   1.000000E+04   1.000000E+04   1.000000E+04   1.000000E+04   1.000000E+04   1.000000E+04   1.000000E+04   1.000000E+04   1.000000E+04   1.000000E+04   1.000000E+04   1.000000E+04   1.000000E+04   1.000000E+04   1.000000E+04   1.000000E+04   1.000000E+04   1.000000E+04   1.000000E+04   1.000000E+04   1.000000E+04   1.000000E+04   1.000000E+04   1.000000E+04   1.000000E+04   1.000000E+04   1.000000E+04   1.000000E+04   1.000000E+04   1.000000E+04   1.000000E+04   1.000000E+04   1.000000E+04   1.000000E+04   1.000000E+02   1.000000E+02   1.000000E+02   1.000000E+02   1.000000E+02   1.000000E+02   1.000000E+02   1.000000E+02   1.000000E+02   1.000000E+02   1.000000E+02   1.000000E+02   1.000000E+02   1.000000E+02   1.000000E+02   1.000000E+02   1.000000E+02   1.000000E+02   1.000000E+02   1.000000E+02   1.000000E+02   1.000000E+02   1.000000E+02   1.000000E+02   1.000000E+02   1.000000E+02   1.000000E+02   1.000000E+02   1.000000E+02   1.000000E+02   1.000000E+02   1.000000E+02   1.000000E+02   1.000000E+02   1.000000E+02   1.000000E+02   1.000000E+02   1.000000E+02   1.000000E+02   1.000000E+02   1.000000E+02   1.000000E+02   1.000000E+02   1.000000E+02   1.000000E+02   1.000000E+02   1.000000E+02   1.000000E+02   1.000000E+02   1.000000E+02   1.000000E+02   1.000000E+02   1.000000E+02   1.000000E+02   1.000000E+02   1.000000E+02   1.000000E+02   1.000000E+02   1.000000E+02   1.000000E+02   1.000000E+02   1.000000E+02   1.000000E+02   1.000000E+02   1.000000E+02   1.000000E+02   1.000000E+02   1.000000E+02   1.000000E+02   1.000000E+02   1.000000E-03   1.000000E-03   1.000000E-03   1.000000E-03   1.000000E-03   1.000000E-03   1.000000E-03   1.000000E-03   1.000000E-03   1.000000E-03   1.000000E-03   1.000000E-03   1.000000E-03   1.000000E-03   1.000000E-03   1.000000E-03   1.000000E-03   1.000000E-03   1.000000E-03   1.000000E-03   1.000000E-03   1.000000E-03   1.000000E-03   1.000000E-03   1.000000E-03   1.000000E-03   1.000000E-03   1.000000E-03   1.000000E-03   1.000000E-03   1.000000E-03   1.000000E-03   1.000000E-03   1.000000E-03   1.000000E-03   1.000000E-03   1.000000E-03   1.000000E-03   1.000000E-03   1.000000E-03   1.000000E-03   1.000000E-03   1.000000E-03   1.000000E-03   1.000000E-03   1.000000E-03   1.000000E-03   1.000000E-03   1.000000E-03   1.000000E-03   1.000000E-03   1.000000E-03   1.000000E-03   1.000000E-03   1.000000E-03   1.000000E-03   1.000000E-03   1.000000E-03   1.000000E-03   1.000000E-03   1.000000E-03   1.000000E+02   1.000000E+02   1.000000E+02   1.000000E+02   1.000000E+02   1.000000E+02   1.000000E+02   1.000000E+02   1.000000E+02   1.000000E+02   1.000000E+02   1.000000E+02   1.000000E+02   1.000000E+02   1.000000E+02   1.000000E+02   1.000000E+02   1.000000E+02   1.000000E+02   1.000000E+02   1.000000E+02   1.000000E-03   1.000000E-03   1.000000E+02   1.000000E-01   1.000000E-01   1.000000E-01   1.000000E-01   1.000000E-01   1.000000E-01   1.000000E+02   1.000000E+02   1.000000E+02   1.000000E-01   1.000000E-01   1.000000E-01   1.000000E-01   1.000000E-01   1.000000E-01   1.000000E-01   1.000000E+02   1.000000E+02   1.000000E+02   1.000000E+02   1.000000E+02   1.000000E+02   1.000000E+02   1.000000E+02   1.000000E-01   1.000000E+02   1.000000E+02   1.000000E-01   1.000000E-01   1.000000E-01   1.000000E-01   1.000000E-01   1.000000E-01   1.000000E-01   1.000000E-01   1.000000E-01   1.000000E-01   1.000000E-01   1.000000E-01   1.000000E-01   1.000000E-01   1.000000E-01   1.000000E-01   1.000000E-01   1.000000E-01   1.000000E-01   1.000000E-01   1.000000E-01   1.000000E-01   1.000000E+02   1.000000E+02   1.000000E+02   1.000000E+02
   1.000000E+04   1.000000E+04   1.000000E+04   1.000000E+04   1.000000E+04   1.000000E+04   1.000000E+04   1.000000E+04   1.000000E+04   1.000000E+04   1.000000E+04   1.000000E+04   1.000000E+04   1.000000E+04   1.000000E+04   1.000000E+04   1.000000E+04   1.000000E+04   1.000000E+04   1.000000E+04   1.000000E+04   1.000000E+04   1.000000E+04   1.000000E+04   1.000000E+04   1.000000E+04   1.000000E+04   1.000000E+04   1.000000E+04   1.000000E+04   1.000000E+04   1.000000E+04   1.000000E+04   1.000000E+04   1.000000E+04   1.000000E+04   1.000000E+04   1.000000E+04   1.000000E+04   1.000000E+04   1.000000E+04   1.000000E+04   1.000000E+04   1.000000E+04   1.000000E+04   1.000000E+04   1.000000E+04   1.000000E+04   1.000000E+04   1.000000E+04   1.000000E+04   1.000000E+04   1.000000E+04   1.000000E+04   1.000000E+04   1.000000E+04   1.000000E+04   1.000000E+04   1.000000E+04   1.000000E+04   1.000000E+04   1.000000E+04   1.000000E+04   1.000000E+04   1.000000E+04   1.000000E+04   1.000000E+04   1.000000E+04   1.000000E+04   1.000000E+04   1.000000E+04   1.000000E+04   1.000000E+04   1.000000E+04   1.000000E+04   1.000000E+04   1.000000E+04   1.000000E+04   1.000000E+04   1.000000E+04   1.000000E+04   1.000000E+04   1.000000E+04   1.000000E+04   1.000000E+04   1.000000E+04   1.000000E+04   1.000000E+04   1.000000E+04   1.000000E+04   1.000000E+04   1.000000E+04   1.000000E+04   1.000000E+04   1.000000E+04   1.000000E+04   1.000000E+04   1.000000E+04   1.000000E+04   1.000000E+04   1.000000E+04   1.000000E+04   1.000000E+04   1.000000E+04   1.000000E+04   1.000000E+04   1.000000E+04   1.000000E+04   1.000000E+04   1.000000E+04   1.000000E+04   1.000000E+04   1.000000E+04   1.000000E+04   1.000000E+04   1.000000E+04   1.000000E+04   1.000000E+04   1.000000E+04   1.000000E+04   1.000000E+04   1.000000E+04   1.000000E+04   1.000000E+04   1.000000E+04   1.000000E+04   1.000000E+04   1.000000E+04   1.000000E+04   1.000000E+04   1.000000E+04   1.000000E+04   1.000000E+04   1.000000E+04   1.000000E+04   1.000000E+04   1.000000E+04   1.000000E+04   1.000000E+02   1.000000E+02   1.000000E+02   1.000000E+02   1.000000E+02   1.000000E+02   1.000000E+02   1.000000E+02   1.000000E+02   1.000000E+02   1.000000E+02   1.000000E+02   1.000000E+02   1.000000E+02   1.000000E+02   1.000000E+02   1.000000E+02   1.000000E+02   1.000000E+02   1.000000E+02   1.000000E+02   1.000000E+02   1.000000E+02   1.000000E+02   1.000000E+02   1.000000E+02   1.000000E+02   1.000000E+02   1.000000E+02   1.000000E+02   1.000000E+02   1.000000E+02   1.000000E+02   1.000000E+02   1.000000E+02   1.000000E+02   1.000000E+02   1.000000E+02   1.000000E+02   1.000000E+02   1.000000E+02   1.000000E+02   1.000000E+02   1.000000E+02   1.000000E+02   1.000000E+02   1.000000E+02   1.000000E+02   1.000000E+02   1.000000E+02   1.000000E+02   1.000000E+02   1.000000E+02   1.000000E+02   1.000000E+02   1.000000E+02   1.000000E+02   1.000000E+02   1.000000E+02   1.000000E+02   1.000000E+02   1.000000E+02   1.000000E+02   1.000000E+02   1.000000E+02   1.000000E+02   1.000000E+02   1.000000E-03   1.000000E-03   1.000000E-03   1.000000E-03   1.000000E-03   1.000000E-03   1.000000E-03   1.000000E-03   1.000000E-03   1.000000E-03   1.000000E-03   1.000000E-03   1.000000E-03   1.000000E-03   1.000000E-03   1.000000E-03   1.000000E-03   1.000000E-03   1.000000E-03   1.000000E-03   1.000000E-03   1.000000E-03   1.000000E-03   1.000000E-03   1.000000E-03   1.000000E-03   1.000000E-03   1.000000E-03   1.000000E-03   1.000000E-03   1.000000E-03   1.000000E-03   1.000000E-03   1.000000E-03   1.000000E-03   1.000000E-03   1.000000E-03   1.000000E-03   1.000000E-03   1.000000E-03   1.000000E-03   1.000000E-03   1.000000E-03   1.000000E-03   1.000000E-03   1.000000E-03   1.000000E-03   1.000000E-03   1.000000E-03   1.000000E-03   1.000000E-03   1.000000E-03   1.000000E-03   1.000000E-03   1.000000E-03   1.000000E-03   1.000000E-03   1.000000E-03   1.000000E-03   1.000000E-03   1.000000E-03   1.000000E-03   1.000000E-03   1.000000E+02   1.000000E+02   1.000000E+02   1.000000E+02   1.000000E+02   1.000000E+02   1.000000E+02   1.000000E+02   1.000000E+02   1.000000E+02   1.000000E+02   1.000000E+02   1.000000E+02   1.000000E+02   1.000000E+02   1.000000E+02   1.000000E+02   1.000000E+02   1.000000E+02   1.000000E+02   1.000000E+02   1.000000E-03   1.000000E-03   1.000000E-01   1.000000E-01   1.000000E-01   1.000000E-01   1.000000E-01   1.000000E-01   1.000000E-01   1.000000E+02   1.000000E-01   1.000000E-01   1.000000E-01   1.000000E-01   1.000000E-01   1.000000E-01   1.000000E-01   1.000000E-01   1.000000E-01   1.000000E-01   1.000000E+02   1.000000E+02   1.000000E+02   1.000000E+02   1.000000E-01   1.000000E-01   1.000000E+02   1.000000E+02   1.000000E+02   1.000000E+02   1.000000E+02   1.000000E-01   1.000000E-01   1.000000E-01   1.000000E-01   1.000000E-01   1.000000E-01   1.000000E-01   1.000000E-01   1.000000E-01   1.000000E-01   1.000000E-01   1.000000E-01   1.000000E-01   1.000000E-01   1.000000E-01   1.000000E-01   1.000000E-01   1.000000E-01   1.000000E-01   1.000000E-01   1.000000E+02   1.000000E+02   1.000000E+02   1.000000E+02   1.000000E+02