# OC package for  SEAWAT, generated by Flopy.
HEAD PRINT FORMAT   0
HEAD SAVE UNIT    51
DRAWDOWN PRINT FORMAT   0
COMPACT BUDGET AUX

period 1 step 1 
  save head
  save budget

period 2 step 1 
  save head
  save budget

period 3 step 1 
  save head
  save budget

period 4 step 1 
  save head
  save budget

period 5 step 1 
  save head
  save budget

period 6 step 1 
  save head
  save budget

period 7 step 1 
  save head
  save budget

period 8 step 1 
  save head
  save budget

period 9 step 1 
  save head
  save budget

period 10 step 1 
  save head
  save budget

period 11 step 1 
  save head
  save budget

period 12 step 1 
  save head
  save budget

period 13 step 1 
  save head
  save budget

period 14 step 1 
  save head
  save budget

period 15 step 1 
  save head
  save budget

period 16 step 1 
  save head
  save budget

period 17 step 1 
  save head
  save budget

period 18 step 1 
  save head
  save budget

period 19 step 1 
  save head
  save budget

period 20 step 1 
  save head
  save budget

period 21 step 1 
  save head
  save budget

period 22 step 1 
  save head
  save budget

period 23 step 1 
  save head
  save budget

period 24 step 1 
  save head
  save budget

period 25 step 1 
  save head
  save budget

period 26 step 1 
  save head
  save budget

period 27 step 1 
  save head
  save budget

period 28 step 1 
  save head
  save budget

period 29 step 1 
  save head
  save budget

period 30 step 1 
  save head
  save budget

period 31 step 1 
  save head
  save budget

period 32 step 1 
  save head
  save budget

period 33 step 1 
  save head
  save budget

period 34 step 1 
  save head
  save budget

period 35 step 1 
  save head
  save budget

period 36 step 1 
  save head
  save budget

period 37 step 1 
  save head
  save budget

period 38 step 1 
  save head
  save budget

period 39 step 1 
  save head
  save budget

period 40 step 1 
  save head
  save budget

period 41 step 1 
  save head
  save budget

period 42 step 1 
  save head
  save budget

period 43 step 1 
  save head
  save budget

period 44 step 1 
  save head
  save budget

period 45 step 1 
  save head
  save budget

period 46 step 1 
  save head
  save budget

period 47 step 1 
  save head
  save budget

period 48 step 1 
  save head
  save budget

period 49 step 1 
  save head
  save budget

period 50 step 1 
  save head
  save budget

period 51 step 1 
  save head
  save budget

period 52 step 1 
  save head
  save budget

period 53 step 1 
  save head
  save budget

period 54 step 1 
  save head
  save budget

period 55 step 1 
  save head
  save budget

period 56 step 1 
  save head
  save budget

period 57 step 1 
  save head
  save budget

period 58 step 1 
  save head
  save budget

period 59 step 1 
  save head
  save budget

period 60 step 1 
  save head
  save budget

period 61 step 1 
  save head
  save budget

period 62 step 1 
  save head
  save budget

period 63 step 1 
  save head
  save budget

period 64 step 1 
  save head
  save budget

period 65 step 1 
  save head
  save budget

period 66 step 1 
  save head
  save budget

period 67 step 1 
  save head
  save budget

period 68 step 1 
  save head
  save budget

period 69 step 1 
  save head
  save budget

period 70 step 1 
  save head
  save budget

period 71 step 1 
  save head
  save budget

period 72 step 1 
  save head
  save budget

period 73 step 1 
  save head
  save budget

period 74 step 1 
  save head
  save budget

period 75 step 1 
  save head
  save budget

period 76 step 1 
  save head
  save budget

period 77 step 1 
  save head
  save budget

period 78 step 1 
  save head
  save budget

period 79 step 1 
  save head
  save budget

period 80 step 1 
  save head
  save budget

period 81 step 1 
  save head
  save budget

